OPT_V10/Two_days_MYC3/powerflow_results_t35.txt
Pandapower Network Debug Info
==================================================

BUS:
       vm_pu  va_degree      p_mw    q_mvar
0   0.998374   0.402036 -0.001902  0.001173
1   0.997650   0.660036 -0.002222  0.002168
2   0.996082   0.852026 -0.000715  0.003124
3   0.996334   0.582223 -0.000384  0.004386
4   0.999911   0.001938  0.007042  0.010221
5   0.999900   0.002049  0.007060  0.009065
6   0.999890   0.002107  0.010918  0.010582
7   0.999949   0.001479  0.000000  0.000000
8   0.999949   0.001485  0.000000  0.000000
9   1.000000   0.000000 -0.019935 -0.045808
10  1.000000   0.000006  0.000000  0.000000
--------------------------------------------------

LINE:
   p_from_mw  q_from_mvar   p_to_mw  q_to_mvar         pl_mw       ql_mvar  i_from_ka   i_to_ka      i_ka  vm_from_pu  va_from_degree  vm_to_pu  va_to_degree  loading_percent
0   0.019925     0.041808 -0.019923  -0.041806  2.098009e-06  1.635852e-06   0.001783  0.001783  0.001783    1.000000        0.000006  0.999949      0.001479         0.775041
1   0.025022     0.029869 -0.025021  -0.029868  1.174163e-06  9.155144e-07   0.001500  0.001500  0.001500    0.999949        0.001479  0.999911      0.001938         0.652102
2  -0.005109     0.010938  0.005178  -0.010885  6.817236e-05  5.315511e-05   0.017426  0.017426  0.017426    0.999949        0.001485  0.998374      0.402036         7.576393
3  -0.017978    -0.019647  0.017979   0.019647  2.453169e-07  1.912777e-07   0.001025  0.001025  0.001025    0.999900        0.002049  0.999911      0.001938         0.445715
4  -0.010918    -0.010582  0.010918   0.010582  1.130914e-07  8.817926e-08   0.000585  0.000585  0.000585    0.999890        0.002107  0.999900      0.002049         0.254479
5   0.002927    -0.005298 -0.002906   0.005315  2.178094e-05  1.698296e-05   0.008758  0.008758  0.008758    0.997650        0.660036  0.998374      0.402036         3.807734
6   0.000384    -0.004386 -0.000370   0.004396  1.303866e-05  1.016646e-05   0.006378  0.006378  0.006378    0.996334        0.582223  0.998374      0.402036         2.773207
7   0.000715    -0.003124 -0.000706   0.003131  9.361410e-06  7.299245e-06   0.004643  0.004643  0.004643    0.996082        0.852026  0.997650      0.660036         2.018810
--------------------------------------------------

TRAFO:
    p_hv_mw  q_hv_mvar   p_lv_mw  q_lv_mvar    pl_mw  ql_mvar   i_hv_ka   i_lv_ka  vm_hv_pu  va_hv_degree  vm_lv_pu  va_lv_degree  loading_percent
0 -0.005099   0.011938  0.005109  -0.010938  0.00001    0.001  0.000500  0.017426  0.999949      0.001479  0.999949      0.001485         0.129818
1  0.019935   0.045808 -0.019925  -0.041808  0.00001    0.004  0.000412  0.001783  1.000000      0.000000  1.000000      0.000006         0.124894
--------------------------------------------------
